34
Coordinates from ORCA-job PPh3
  P   -1.50648558216753      3.31760806475149      0.05606112836996
  C   -3.19079757815830      2.97260973027536     -0.59337568188440
  H   -2.19280413892480      5.75292734426173      1.38612429738998
  C   0.59062412388734      1.54045061439790      0.42699278094057
  H   2.28457959080370      0.24420686448837      0.73902451379522
  C   1.21895525143443      0.30006158513827      0.50237562938119
  C   0.49227533066343     -0.86681584050604      0.26217264357009
  H   0.98648264854766     -1.84039729861796      0.31156492289342
  C   -0.86448003833285     -0.78509498592275     -0.04671472998437
  H   -1.43821739006773     -1.69542575081452     -0.23913319694671
  C   -1.49841868932881      0.45589629055024     -0.10814915275929
  H   -2.56381431115636      0.50801573091592     -0.34407574408912
  C   -0.77751510916418      1.63147638423967      0.13125485221342
  H   1.16830103190029      2.45363510908653      0.60024034571596
  C   -2.16548538329840      4.98699209372331      2.16729270013836
  H   -2.70053906074250      6.36662046841518      3.73568629478172
  C   -2.44789822163178      5.33278953586741      3.48658981693835
  C   -2.39345987914181      4.36368624372902      4.48879000877202
  H   -2.60414753560804      4.63566422229543      5.52621494994868
  C   -2.06188083734235      3.04912699168655      4.16344030119360
  H   -2.01507987751342      2.28658481528432      4.94531524822147
  C   -1.79191855002436      2.69895985124762      2.84083314839843
  H   -1.53957209445518      1.66477182381854      2.59465954030480
  C   -1.84425975805465      3.66478746386852      1.82871675873410
  H   -2.46504807307546      3.08650575553716     -2.62781044470281
  C   -3.33573330535635      2.91694898817553     -1.98698795395373
  H   -4.67326268529739      2.60250264052299     -3.64878377645570
  C   -4.57591672884680      2.64785952860975     -2.56107645133342
  C   -5.69285480629618      2.45014042487254     -1.74866338918937
  H   -6.66862072168403      2.24815019380652     -2.19774025365232
  C   -5.56093348812057      2.51788395734604     -0.36236612125977
  H   -6.43333515365072      2.36685723974789      0.27873761698875
  C   -4.31703411452145      2.77403657209351      0.21395101530879
  H   -4.22295486527455      2.81826734710771      1.30156838221207
